Version 4
SHEET 1 2928 912
WIRE 2016 112 1984 112
WIRE 2192 128 2080 128
WIRE 2016 144 1392 144
WIRE 2480 208 2368 208
WIRE 2688 208 2560 208
WIRE -512 240 -512 208
WIRE -416 240 -512 240
WIRE -512 272 -512 240
WIRE -416 272 -416 240
WIRE 480 272 384 272
WIRE 768 272 560 272
WIRE 864 272 768 272
WIRE 1200 272 944 272
WIRE 1392 272 1392 144
WIRE 1392 272 1200 272
WIRE 1984 288 1984 112
WIRE 2080 288 1984 288
WIRE 2192 288 2192 128
WIRE 2192 288 2160 288
WIRE 2240 288 2192 288
WIRE 2368 288 2368 208
WIRE 2368 288 2320 288
WIRE 1392 320 1392 272
WIRE 768 336 768 272
WIRE 1200 336 1200 272
WIRE 240 352 192 352
WIRE 384 352 384 272
WIRE 384 352 320 352
WIRE 1984 352 1984 288
WIRE 2368 368 2368 288
WIRE 2480 368 2368 368
WIRE 2688 384 2688 208
WIRE 2688 384 2544 384
WIRE 2480 400 2368 400
WIRE 192 448 192 352
WIRE 192 448 -176 448
WIRE 256 448 192 448
WIRE 384 448 384 352
WIRE 480 448 384 448
WIRE 1200 448 1200 400
WIRE 1392 448 1392 400
WIRE 1392 448 1200 448
WIRE 1504 448 1392 448
WIRE 768 464 768 400
WIRE 768 464 544 464
WIRE 480 480 448 480
WIRE 1504 480 1504 448
WIRE 1984 480 1984 432
WIRE 2080 480 1984 480
WIRE 2192 480 2160 480
WIRE 2240 480 2192 480
WIRE 2368 480 2368 400
WIRE 2368 480 2320 480
WIRE -176 512 -176 448
WIRE 1392 512 1392 448
WIRE 2368 512 2368 480
WIRE 512 528 512 496
WIRE 1200 528 1200 448
WIRE 768 544 768 464
WIRE -176 624 -176 592
WIRE 1984 624 1984 480
WIRE 2016 624 1984 624
WIRE 2192 640 2192 480
WIRE 2192 640 2080 640
WIRE 2368 640 2368 592
WIRE 2016 656 1536 656
WIRE 384 672 384 448
WIRE 480 672 384 672
WIRE 768 672 768 608
WIRE 768 672 560 672
WIRE 848 672 768 672
WIRE 1200 672 1200 592
WIRE 1200 672 928 672
WIRE 1392 672 1392 592
WIRE 1392 672 1200 672
WIRE 1536 672 1536 656
WIRE 1536 672 1392 672
FLAG -416 272 0
FLAG -512 128 +5V
FLAG -512 352 -5V
FLAG 448 480 0
FLAG 512 528 -5V
FLAG 512 432 +5V
FLAG -176 624 0
FLAG 1504 480 0
FLAG 2048 160 -5V
FLAG 2048 96 +5V
FLAG 2048 672 -5V
FLAG 2048 608 +5V
FLAG 2512 416 -5V
FLAG 2512 352 +5V
FLAG 2368 640 0
SYMBOL voltage -512 112 R0
WINDOW 123 0 0 Left 0
WINDOW 39 0 0 Left 0
SYMATTR InstName V1
SYMATTR Value 5
SYMBOL voltage -512 256 R0
WINDOW 123 0 0 Left 0
WINDOW 39 0 0 Left 0
SYMATTR InstName V2
SYMATTR Value 5
SYMBOL schottky 784 608 R180
WINDOW 0 24 64 Left 2
WINDOW 3 24 0 Left 2
SYMATTR InstName D2
SYMATTR Value MMBD301LT1G
SYMATTR Description Diode
SYMATTR Type diode
SYMBOL res 576 256 R90
WINDOW 0 0 56 VBottom 2
WINDOW 3 32 56 VTop 2
SYMATTR InstName R1
SYMATTR Value 1k
SYMBOL res 576 656 R90
WINDOW 0 0 56 VBottom 2
WINDOW 3 32 56 VTop 2
SYMATTR InstName R2
SYMATTR Value 1k
SYMBOL schottky 784 400 R180
WINDOW 0 24 64 Left 2
WINDOW 3 24 0 Left 2
SYMATTR InstName D1
SYMATTR Value MMBD301LT1G
SYMATTR Description Diode
SYMATTR Type diode
SYMBOL res 960 256 R90
WINDOW 0 0 56 VBottom 2
WINDOW 3 32 56 VTop 2
SYMATTR InstName R6
SYMATTR Value 100
SYMBOL res 944 656 R90
WINDOW 0 0 56 VBottom 2
WINDOW 3 32 56 VTop 2
SYMATTR InstName R7
SYMATTR Value 100
SYMBOL Opamps\\LT1396 512 400 R0
SYMATTR InstName U1
SYMBOL cap 1184 336 R0
SYMATTR InstName C1
SYMATTR Value 10µ
SYMBOL cap 1184 528 R0
SYMATTR InstName C2
SYMATTR Value 10µ
SYMBOL res 1376 496 R0
SYMATTR InstName R4
SYMATTR Value 1k
SYMBOL res 1376 304 R0
SYMATTR InstName R5
SYMATTR Value 1k
SYMBOL cap 320 432 R90
WINDOW 0 0 32 VBottom 2
WINDOW 3 32 32 VTop 2
SYMATTR InstName C3
SYMATTR Value 3p
SYMBOL res 336 336 R90
WINDOW 0 0 56 VBottom 2
WINDOW 3 32 56 VTop 2
SYMATTR InstName R8
SYMATTR Value 10k
SYMBOL voltage -176 496 R0
WINDOW 123 0 0 Left 0
WINDOW 39 0 0 Left 0
SYMATTR InstName V3
SYMATTR Value SINE(0 10 10meg 10u)
SYMBOL Opamps\\AD8628 2048 64 R0
SYMATTR InstName U5
SYMBOL Opamps\\AD8628 2048 576 R0
SYMATTR InstName U2
SYMBOL Opamps\\AD8628 2512 320 R0
SYMATTR InstName U3
SYMBOL res 2176 272 R90
WINDOW 0 0 56 VBottom 2
WINDOW 3 32 56 VTop 2
SYMATTR InstName R3
SYMATTR Value 10k
SYMBOL res 2176 464 R90
WINDOW 0 0 56 VBottom 2
WINDOW 3 32 56 VTop 2
SYMATTR InstName R9
SYMATTR Value 10k
SYMBOL res 1968 336 R0
SYMATTR InstName R10
SYMATTR Value 100k
SYMBOL res 2352 496 R0
SYMATTR InstName R11
SYMATTR Value 10k
SYMBOL res 2576 192 R90
WINDOW 0 0 56 VBottom 2
WINDOW 3 32 56 VTop 2
SYMATTR InstName R12
SYMATTR Value 10k
SYMBOL res 2336 272 R90
WINDOW 0 0 56 VBottom 2
WINDOW 3 32 56 VTop 2
SYMATTR InstName R13
SYMATTR Value 10k
SYMBOL res 2336 464 R90
WINDOW 0 0 56 VBottom 2
WINDOW 3 32 56 VTop 2
SYMATTR InstName R14
SYMATTR Value 10k
TEXT 96 32 Left 2 ;https://www.analog.com/en/technical-articles/ltc6244-high-speed-peak-detector.html
TEXT -544 664 Left 2 !.tran 100m
TEXT -544 712 Left 2 !.inc MMBD301LT1G.SP3
TEXT -144 752 Left 2 !.param f = 1k
TEXT -552 560 Left 2 !.option gmin = 10E-10
