Version 4
SHEET 1 4840 2148
WIRE -464 -128 -464 -160
WIRE -160 -128 -160 -160
WIRE -16 -128 -16 -160
WIRE -464 -16 -464 -48
WIRE -464 -16 -736 -16
WIRE -160 -16 -160 -48
WIRE -160 -16 -464 -16
WIRE -16 -16 -16 -48
WIRE -16 -16 -160 -16
WIRE -464 0 -464 -16
WIRE -160 0 -160 -16
WIRE -736 32 -736 -16
WIRE -464 128 -464 80
WIRE -160 128 -160 80
WIRE 2960 656 2272 656
WIRE 3280 736 2576 736
WIRE 3280 752 3088 752
WIRE 3680 752 3344 752
WIRE 3712 752 3680 752
WIRE 4096 816 4096 768
WIRE 4192 816 4096 816
WIRE 4816 816 4352 816
WIRE 3680 864 3680 752
WIRE 4192 864 3680 864
WIRE 2272 912 2272 656
WIRE 2320 912 2272 912
WIRE 2576 912 2576 736
WIRE 2576 912 2480 912
WIRE 2656 912 2576 912
WIRE 3136 912 2816 912
WIRE 3200 912 3136 912
WIRE 4816 928 4816 816
WIRE 4816 928 4624 928
WIRE 4560 944 4512 944
WIRE 4816 944 4624 944
WIRE 2272 960 1968 960
WIRE 2320 960 2272 960
WIRE 2656 960 2608 960
WIRE 2960 960 2960 656
WIRE 2960 960 2832 960
WIRE 1488 976 1472 976
WIRE 1760 976 1488 976
WIRE 1968 976 1968 960
WIRE 1968 976 1840 976
WIRE 4272 976 4272 912
WIRE 4512 976 4512 944
WIRE 4512 976 4272 976
WIRE 1488 1008 1488 976
WIRE 2272 1088 2272 960
WIRE 2608 1088 2608 960
WIRE 2608 1088 2272 1088
WIRE 4096 1088 4096 816
WIRE 4192 1088 4096 1088
WIRE 4816 1088 4816 944
WIRE 4816 1088 4352 1088
WIRE 1488 1120 1488 1088
WIRE 2960 1136 2272 1136
WIRE 4192 1136 3696 1136
WIRE 1744 1168 1488 1168
WIRE 2016 1168 1824 1168
WIRE 1488 1200 1488 1168
WIRE 3280 1216 2576 1216
WIRE 3136 1232 3136 912
WIRE 3280 1232 3136 1232
WIRE 3696 1232 3696 1136
WIRE 3696 1232 3344 1232
WIRE 3712 1232 3696 1232
WIRE 3696 1248 3696 1232
WIRE 4272 1248 4272 1184
WIRE 4512 1248 4512 976
WIRE 4512 1248 4272 1248
WIRE 1488 1312 1488 1280
WIRE 2272 1392 2272 1136
WIRE 2320 1392 2272 1392
WIRE 2576 1392 2576 1216
WIRE 2576 1392 2480 1392
WIRE 2656 1392 2576 1392
WIRE 3088 1392 3088 752
WIRE 3088 1392 2816 1392
WIRE 3200 1392 3088 1392
WIRE 2016 1440 2016 1168
WIRE 2016 1440 1968 1440
WIRE 2272 1440 2016 1440
WIRE 2320 1440 2272 1440
WIRE 2656 1440 2608 1440
WIRE 2960 1440 2960 1136
WIRE 2960 1440 2832 1440
WIRE 2272 1568 2272 1440
WIRE 2608 1568 2608 1440
WIRE 2608 1568 2272 1568
FLAG -736 32 0
FLAG -160 -160 +5V
FLAG -160 128 -5V
FLAG -16 -160 REF
FLAG 16 992 0
FLAG 80 992 0
FLAG -464 -160 +12V
FLAG -464 128 -12V
FLAG 1488 1120 0
FLAG 1488 1312 0
FLAG 4096 768 +5V
SYMBOL voltage -160 -144 R0
WINDOW 123 0 0 Left 0
WINDOW 39 0 0 Left 0
SYMATTR InstName V1
SYMATTR Value 5
SYMBOL voltage -160 -16 R0
WINDOW 123 0 0 Left 0
WINDOW 39 0 0 Left 0
SYMATTR InstName V2
SYMATTR Value 5
SYMBOL voltage -16 -144 R0
WINDOW 123 0 0 Left 0
WINDOW 39 0 0 Left 0
SYMATTR InstName V4
SYMATTR Value 3
SYMBOL schottky 16 1008 R270
WINDOW 0 32 32 VTop 2
WINDOW 3 0 32 VBottom 2
SYMATTR InstName D3
SYMATTR Value MMBD301LT1G
SYMATTR Description Diode
SYMATTR Type diode
SYMBOL voltage -464 -144 R0
WINDOW 123 0 0 Left 0
WINDOW 39 0 0 Left 0
SYMATTR InstName V3
SYMATTR Value 12
SYMBOL voltage -464 -16 R0
WINDOW 123 0 0 Left 0
WINDOW 39 0 0 Left 0
SYMATTR InstName V7
SYMATTR Value -12
SYMBOL voltage 1488 992 R0
WINDOW 123 0 0 Left 0
WINDOW 39 0 0 Left 0
SYMATTR InstName V9
SYMATTR Value PULSE(0 5 585n 10n 10n 2.49u 5u)
SYMBOL res 1856 960 R90
WINDOW 0 0 56 VBottom 2
WINDOW 3 32 56 VTop 2
SYMATTR InstName R3
SYMATTR Value 10k
SYMBOL res 1840 1152 R90
WINDOW 0 0 56 VBottom 2
WINDOW 3 32 56 VTop 2
SYMATTR InstName R4
SYMATTR Value 10k
SYMBOL voltage 1488 1184 R0
WINDOW 123 0 0 Left 0
WINDOW 39 0 0 Left 0
SYMATTR InstName V10
SYMATTR Value PULSE(0 5 0 10n 10n 2.5u 5u)
SYMBOL Digital\\dflop 2400 864 R0
SYMATTR InstName A1
SYMATTR SpiceLine Vhigh 5 Trise 10n
SYMBOL Digital\\dflop 2736 864 R0
SYMATTR InstName A2
SYMATTR SpiceLine Vhigh 5 Trise 10n
SYMBOL Digital\\dflop 2400 1344 R0
SYMATTR InstName A3
SYMATTR SpiceLine Vhigh 5 Trise 10n
SYMBOL Digital\\dflop 2736 1344 R0
SYMATTR InstName A4
SYMATTR SpiceLine Vhigh 5 Trise 10n
SYMBOL Digital\\xor 3328 704 R0
SYMATTR InstName A5
SYMATTR SpiceLine Vhigh 5 Trise 10n
SYMBOL Digital\\xor 3328 1184 R0
SYMATTR InstName A6
SYMATTR SpiceLine Vhigh 5 Trise 10n
SYMBOL Digital\\dflop 4272 768 R0
SYMATTR InstName A7
SYMATTR SpiceLine Vhigh 5 Trise 10n
SYMBOL Digital\\dflop 4272 1040 R0
SYMATTR InstName A8
SYMATTR SpiceLine Vhigh 5 Trise 10n
SYMBOL Digital\\and 4592 896 M0
SYMATTR InstName A9
SYMATTR SpiceLine Vhigh 5 Trise 10n
TEXT -264 552 Left 2 !.tran 10m
TEXT -536 800 Left 2 !.inc MMBD301LT1G.SP3
TEXT 1184 456 Left 2 ;https://hackaday.com/2016/03/23/unlock-the-phase-locked-loop/
TEXT 1184 504 Left 2 ;http://www.ko4bb.com/~bruce/LinearPhaseComparators.html
