Version 4
SHEET 1 3572 1524
WIRE 1024 -208 928 -208
WIRE 1024 -192 1008 -192
WIRE 928 -160 928 -208
WIRE 928 -160 688 -160
WIRE 1136 -160 1088 -160
WIRE 1344 -160 1232 -160
WIRE -160 -128 -160 -160
WIRE 928 -128 928 -160
WIRE 1136 -112 1104 -112
WIRE 1024 -80 992 -80
WIRE 1008 -64 1008 -192
WIRE 1024 -64 1008 -64
WIRE 928 -48 928 -64
WIRE 992 -48 992 -80
WIRE 992 -48 928 -48
WIRE 1104 -32 1104 -112
WIRE 1104 -32 1088 -32
WIRE -160 -16 -160 -48
WIRE -160 -16 -240 -16
WIRE -160 0 -160 -16
WIRE 1008 0 1008 -64
WIRE 1008 0 720 0
WIRE -240 32 -240 -16
WIRE 1856 32 1824 32
WIRE 1968 32 1936 32
WIRE 2048 32 1968 32
WIRE 2224 32 2128 32
WIRE -160 128 -160 80
WIRE 304 144 160 144
WIRE 416 144 384 144
WIRE 576 144 496 144
WIRE 576 160 576 144
WIRE 592 160 576 160
WIRE 688 160 688 -160
WIRE 688 160 672 160
WIRE 736 160 688 160
WIRE 160 176 160 144
WIRE 1968 192 1968 32
WIRE 1984 192 1968 192
WIRE 1344 208 1344 -160
WIRE 1488 208 1344 208
WIRE 2224 208 2224 32
WIRE 2224 208 2048 208
WIRE 448 224 448 208
WIRE 464 224 464 208
WIRE 464 224 448 224
WIRE 1488 224 1344 224
WIRE 1824 224 1552 224
WIRE 1936 224 1904 224
WIRE 1984 224 1936 224
WIRE 464 240 464 224
WIRE 736 240 736 160
WIRE 816 240 736 240
WIRE 816 256 736 256
WIRE 1344 256 1344 224
WIRE 1344 256 880 256
WIRE 160 288 160 256
WIRE 304 336 160 336
WIRE 432 336 384 336
WIRE 560 336 512 336
WIRE 560 352 560 336
WIRE 592 352 560 352
WIRE 720 352 720 0
WIRE 720 352 672 352
WIRE 736 352 736 256
WIRE 736 352 720 352
WIRE 160 368 160 336
WIRE 1936 384 1936 224
WIRE 2000 384 1936 384
WIRE 2224 384 2224 208
WIRE 2224 384 2080 384
WIRE 464 416 464 400
WIRE 480 416 480 400
WIRE 480 416 464 416
WIRE 480 432 480 416
WIRE 1936 432 1936 384
WIRE 160 480 160 448
WIRE 1936 576 1936 496
FLAG -240 32 0
FLAG -160 -160 +5V
FLAG -160 128 -5V
FLAG 160 288 0
FLAG 160 480 0
FLAG 416 176 0
FLAG 448 112 +5V
FLAG 432 208 -5V
FLAG 464 240 0
FLAG 432 368 0
FLAG 464 304 +5V
FLAG 448 400 -5V
FLAG 480 432 0
FLAG 1824 32 0
FLAG 2016 176 +5V
FLAG 2016 240 -5V
FLAG 1936 576 0
SYMBOL voltage -160 -144 R0
WINDOW 123 0 0 Left 0
WINDOW 39 0 0 Left 0
SYMATTR InstName V1
SYMATTR Value 5
SYMBOL voltage -160 -16 R0
WINDOW 123 0 0 Left 0
WINDOW 39 0 0 Left 0
SYMATTR InstName V2
SYMATTR Value 5
SYMBOL res 400 160 M270
WINDOW 0 32 56 VTop 2
WINDOW 3 0 56 VBottom 2
SYMATTR InstName R13
SYMATTR Value 4k7
SYMBOL res 400 352 M270
WINDOW 0 32 56 VTop 2
WINDOW 3 0 56 VBottom 2
SYMATTR InstName R14
SYMATTR Value 4k7
SYMBOL Digital\\srflop 1184 -208 R0
SYMATTR InstName A6
SYMBOL Digital\\inv 992 -128 R90
SYMATTR InstName A7
SYMBOL Digital\\xor 864 208 R0
SYMATTR InstName A8
SYMBOL res 688 144 R90
WINDOW 0 0 56 VBottom 2
WINDOW 3 32 56 VTop 2
SYMATTR InstName R15
SYMATTR Value 1k
SYMBOL res 688 336 R90
WINDOW 0 0 56 VBottom 2
WINDOW 3 32 56 VTop 2
SYMATTR InstName R16
SYMATTR Value 1k
SYMBOL Digital\\and 1056 -240 R0
SYMATTR InstName A9
SYMBOL Digital\\and 1056 -112 R0
SYMATTR InstName A10
SYMBOL voltage 160 160 R0
WINDOW 123 0 0 Left 0
WINDOW 39 0 0 Left 0
SYMATTR InstName V5
SYMATTR Value SINE(0 1 1MEG 0 0 0)
SYMBOL voltage 160 352 R0
WINDOW 123 0 0 Left 0
WINDOW 39 0 0 Left 0
SYMATTR InstName V6
SYMATTR Value SINE(0 1 1MEG 0 0 1)
SYMBOL Digital\\and 1520 176 R0
SYMATTR InstName A11
SYMBOL Comparators\\LT1016 448 96 R0
SYMATTR InstName U5
SYMBOL Comparators\\LT1016 464 288 R0
SYMATTR InstName U4
SYMBOL res 1952 16 R90
WINDOW 0 0 56 VBottom 2
WINDOW 3 32 56 VTop 2
SYMATTR InstName R5
SYMATTR Value 10k
SYMBOL res 2144 16 R90
WINDOW 0 0 56 VBottom 2
WINDOW 3 32 56 VTop 2
SYMATTR InstName R6
SYMATTR Value 10k
SYMBOL res 1920 208 R90
WINDOW 0 0 56 VBottom 2
WINDOW 3 32 56 VTop 2
SYMATTR InstName R7
SYMATTR Value 10k
SYMBOL res 2096 368 R90
WINDOW 0 0 56 VBottom 2
WINDOW 3 32 56 VTop 2
SYMATTR InstName R8
SYMATTR Value 10k
SYMBOL cap 1920 432 R0
SYMATTR InstName C1
SYMATTR Value 100n
SYMBOL Opamps\\LT1804 2016 208 R0
SYMATTR InstName U1
TEXT -264 552 Left 2 !.tran 1m
TEXT 1712 -56 Left 2 ;https://blog.hendriklipka.de/archives/2016/03/stairstep_gen_1.html
